.options brief

***************************************************************
* Title		: nd.inc
* Library 	: stdcells
* Purpose	: Nand of Scaleable strength
*		
***************************************************************

.subckt NDLAY a b z vdd vdds gnd gnds ds=1
M3 VDD B Z VDD  PCH  L=180.000000682412E-9 W=999.999997475243E-9 
+AD=479.999991576802E-15 AS=270.000005426346E-15 PD=1.95999996321916E-6 
+PS=539.999973625527E-9 NRD=+2.70000001E-01 NRS=+2.70000001E-01 M=1.0 
M4 Z A VDD VDD  PCH  L=180.000000682412E-9 W=999.999997475243E-9 
+AD=270.000005426346E-15 AS=479.999991576802E-15 PD=539.999973625527E-9 
+PS=1.95999996321916E-6 NRD=+2.70000014E-01 NRS=+2.70000001E-01 M=1.0 
M5 GND B 1 GND  NCH  L=180.000000682412E-9 W=999.999997475243E-9 
+AD=479.999991576802E-15 AS=270.000005426346E-15 PD=1.95999996321916E-6 
+PS=539.999973625527E-9 NRD=+2.70000001E-01 NRS=+2.70000014E-01 M=1.0 
M6 1 A Z GND  NCH  L=180.000000682412E-9 W=999.999997475243E-9 
+AD=270.000005426346E-15 AS=479.999991576802E-15 PD=539.999973625527E-9 
+PS=1.95999996321916E-6 NRD=+2.70000014E-01 NRS=+2.70000001E-01 M=1.0 
.ends

.options brief=1
