.options brief
* Custom User Library
.option search = "/local-scratch/localhome/escmc38/Desktop/ensc450/HSPICE/lab2"

***************************************************************
* Title		: xr.inc
* Library 	: stdcells
* Purpose	: CMOS XOR Gate of Scalable strength
*		
***************************************************************

.subckt XRLAY a b z vdd vdds gnd gnds ds=1

M16 VDD B 2 VDD  PCH  L=180.000000682412E-9 W=1.99999999495049E-6 
+AD=959.999983153603E-15 AS=959.999983153603E-15 PD=2.96000007438124E-6 
+PS=2.96000007438124E-6 NRD=+1.35000000E-01 NRS=+1.35000034E-01 M=1.0 
M17 VDD 2 11 VDD  PCH  L=180.000000682412E-9 W=1.99999999495049E-6 
+AD=959.999983153603E-15 AS=249.999999001049E-15 PD=2.96000007438124E-6 
+PS=249.999999368811E-9 NRD=+1.35000034E-01 NRS=+1.35000000E-01 M=1.0 
M18 11 A Z VDD  PCH  L=180.000000682412E-9 W=1.99999999495049E-6 
+AD=249.999999001049E-15 AS=959.999983153603E-15 PD=249.999999368811E-9 
+PS=2.96000007438124E-6 NRD=+1.35000000E-01 NRS=+1.35000034E-01 M=1.0 
M19 Z B 5 VDD  PCH  L=180.000000682412E-9 W=1.99999999495049E-6 
+AD=959.999983153603E-15 AS=670.000025512069E-15 PD=2.96000007438124E-6 
+PS=670.000019908912E-9 NRD=+1.35000000E-01 NRS=+1.35000000E-01 M=1.0 
M20 5 1 VDD VDD  PCH  L=180.000000682412E-9 W=1.99999999495049E-6 
+AD=670.000025512069E-15 AS=959.999983153603E-15 PD=670.000019908912E-9 
+PS=2.96000007438124E-6 NRD=+1.35000000E-01 NRS=+1.35000000E-01 M=1.0 
M21 1 A VDD VDD  PCH  L=180.000000682412E-9 W=1.99999999495049E-6 
+AD=959.999983153603E-15 AS=959.999983153603E-15 PD=2.96000007438124E-6 
+PS=2.96000007438124E-6 NRD=+1.35000000E-01 NRS=+1.35000000E-01 M=1.0 
M22 GND B 2 GND  NCH  L=180.000000682412E-9 W=999.999997475243E-9 
+AD=479.999991576802E-15 AS=479.999991576802E-15 PD=1.95999996321916E-6 
+PS=1.95999996321916E-6 NRD=+2.70000001E-01 NRS=+2.70000001E-01 M=1.0 
M23 GND 2 4 GND  NCH  L=180.000000682412E-9 W=999.999997475243E-9 
+AD=479.999991576802E-15 AS=124.999999500525E-15 PD=1.95999996321916E-6 
+PS=249.999999368811E-9 NRD=+2.70000001E-01 NRS=+2.70000001E-01 M=1.0 
M24 4 1 Z GND  NCH  L=180.000000682412E-9 W=999.999997475243E-9 
+AD=124.999999500525E-15 AS=479.999991576802E-15 PD=249.999999368811E-9 
+PS=1.95999996321916E-6 NRD=+2.70000014E-01 NRS=+2.70000001E-01 M=1.0 
M25 Z A 3 GND  NCH  L=180.000000682412E-9 W=999.999997475243E-9 
+AD=479.999991576802E-15 AS=335.000012756034E-15 PD=1.95999996321916E-6 
+PS=670.000019908912E-9 NRD=+2.70000014E-01 NRS=+2.70000014E-01 M=1.0 
M26 3 B GND GND  NCH  L=180.000000682412E-9 W=999.999997475243E-9 
+AD=335.000012756034E-15 AS=479.999991576802E-15 PD=670.000019908912E-9 
+PS=1.95999996321916E-6 NRD=+2.70000001E-01 NRS=+2.70000014E-01 M=1.0 
M27 1 A GND GND  NCH  L=180.000000682412E-9 W=999.999997475243E-9 
+AD=479.999991576802E-15 AS=479.999991576802E-15 PD=1.95999996321916E-6 
+PS=1.95999996321916E-6 NRD=+2.70000001E-01 NRS=+2.70000001E-01 M=1.0 

.ends

.options brief=1
